<?xml version="1.0" encoding="utf-8"?>
<!DOCTYPE network SYSTEM "http://www.matsim.org/files/dtd/network_v1.dtd">

<network name="Akbas Village">
   <nodes>
      <node id="1" x="1000" y="2000" />
      <node id="2" x="2000" y="2000" />
      <node id="3" x="3000" y="2000" />
      <node id="4" x="4000" y="2000" />
      <node id="5" x="5000" y="2000" />
      <node id="6" x="6000" y="2000" />
      <node id="7" x="2000" y="1000" />
      <node id="8" x="3000" y="1000" />
      <node id="9" x="4000" y="1000" />
      <node id="10" x="5000" y="1000"/>
      <node id="11" x="6000" y="1000" />
      <node id="12" x="2000" y="3000" />
      <node id="13" x="3000" y="3000" />
      <node id="14" x="4000" y="3000" />
      <node id="15" x="5000" y="3000" />
      <node id="16" x="6000" y="3000" />
      <node id="17" x="7000" y="2000" />
   </nodes>
   
   <links capperiod= "1:00:00">
      <link id="100" from="1" to="2" length="1000" capacity="100" freespeed="35" permlanes="2" modes="car" origid="100" />
      <link id="101" from="2" to="3" length="1000" capacity="100" freespeed="35" permlanes="2" modes="car" origid="101" />
      <link id="102" from="3" to="4" length="1000" capacity="100" freespeed="35" permlanes="2" modes="car" origid="102" />
      <link id="103" from="4" to="5" length="1000" capacity="100" freespeed="35" permlanes="2" modes="car" origid="103" />
      <link id="104" from="5" to="6" length="1000" capacity="100" freespeed="35" permlanes="2" modes="car" origid="104" />
      <link id="105" from="2" to="7" length="1000" capacity="100" freespeed="25" permlanes="1" modes="car" origid="105" />
      <link id="106" from="7" to="8" length="1000" capacity="100" freespeed="25" permlanes="1" modes="car" origid="106" />
      <link id="107" from="8" to="9" length="1000" capacity="100" freespeed="25" permlanes="1" modes="car" origid="107" />
      <link id="108" from="9" to="10" length="1000" capacity="100" freespeed="25" permlanes="1" modes="car" origid="108" />
      <link id="109" from="10" to="11" length="1000" capacity="100" freespeed="25" permlanes="1" modes="car" origid="109" />
      <link id="110" from="11" to="6" length="1000" capacity="100" freespeed="25" permlanes="1" modes="car" origid="110" />
      <link id="111" from="8" to="3" length="1000" capacity="100" freespeed="25" permlanes="1" modes="car" origid="111" />
      <link id="112" from="9" to="4" length="1000" capacity="100" freespeed="25" permlanes="1" modes="car" origid="112" />
      <link id="113" from="10" to="5" length="1000" capacity="100" freespeed="25" permlanes="1" modes="car" origid="113" />
      <link id="114" from="2" to="12" length="1000" capacity="100" freespeed="25" permlanes="1" modes="car" origid="114" />
      <link id="115" from="12" to="13" length="1000" capacity="100" freespeed="25" permlanes="1" modes="car" origid="115" />
      <link id="116" from="13" to="14" length="1000" capacity="100" freespeed="25" permlanes="1" modes="car" origid="116" />
      <link id="117" from="14" to="15" length="1000" capacity="100" freespeed="25" permlanes="1" modes="car" origid="117" />
      <link id="118" from="15" to="16" length="1000" capacity="100" freespeed="25" permlanes="1" modes="car" origid="118" />
      <link id="119" from="16" to="6" length="1000" capacity="100" freespeed="25" permlanes="1" modes="car" origid="119" />
      <link id="120" from="13" to="3" length="1000" capacity="100" freespeed="25" permlanes="1" modes="car" origid="120" />
      <link id="121" from="14" to="4" length="1000" capacity="100" freespeed="25" permlanes="1" modes="car" origid="121" />
      <link id="122" from="15" to="5" length="1000" capacity="100" freespeed="25" permlanes="1" modes="car" origid="122" />
      <link id="123" from="6" to="17" length="1000" capacity="100" freespeed="25" permlanes="1" modes="car"  />
      <!--All the nodes below this comment are bi-directional counterparts to the original nodes-->
      <link id="124" from="2" to="1" length="1000" capacity="100" freespeed="25" permlanes="1" modes="car"  />
      <link id="125" from="3" to="2" length="1000" capacity="100" freespeed="25" permlanes="1" modes="car"  />
      <link id="126" from="4" to="3" length="1000" capacity="100" freespeed="25" permlanes="1" modes="car"  />
      <link id="127" from="5" to="4" length="1000" capacity="100" freespeed="25" permlanes="1" modes="car"  />
      <link id="128" from="6" to="5" length="1000" capacity="100" freespeed="25" permlanes="1" modes="car"  />
      <link id="129" from="7" to="2" length="1000" capacity="100" freespeed="25" permlanes="1" modes="car"  />
      <link id="130" from="8" to="7" length="1000" capacity="100" freespeed="25" permlanes="1" modes="car"  />
      <link id="131" from="9" to="8" length="1000" capacity="100" freespeed="25" permlanes="1" modes="car"  />
      <link id="132" from="10" to="9" length="1000" capacity="100" freespeed="25" permlanes="1" modes="car"  />
      <link id="133" from="11" to="10" length="1000" capacity="100" freespeed="25" permlanes="1" modes="car"  />
      <link id="134" from="6" to="11" length="1000" capacity="100" freespeed="25" permlanes="1" modes="car"  />
      <link id="135" from="3" to="8" length="1000" capacity="100" freespeed="25" permlanes="1" modes="car"  />
      <link id="136" from="4" to="9" length="1000" capacity="100" freespeed="25" permlanes="1" modes="car"  />
      <link id="137" from="5" to="10" length="1000" capacity="100" freespeed="25" permlanes="1" modes="car"  />
      <link id="138" from="12" to="2" length="1000" capacity="100" freespeed="25" permlanes="1" modes="car"  />
      <link id="139" from="13" to="12" length="1000" capacity="100" freespeed="25" permlanes="1" modes="car"  />
      <link id="140" from="14" to="13" length="1000" capacity="100" freespeed="25" permlanes="1" modes="car"  />
      <link id="141" from="15" to="14" length="1000" capacity="100" freespeed="25" permlanes="1" modes="car"  />
      <link id="142" from="16" to="15" length="1000" capacity="100" freespeed="25" permlanes="1" modes="car"  />
      <link id="143" from="6" to="16" length="1000" capacity="100" freespeed="25" permlanes="1" modes="car"  />
      <link id="144" from="3" to="13" length="1000" capacity="100" freespeed="25" permlanes="1" modes="car"  />
      <link id="145" from="4" to="14" length="1000" capacity="100" freespeed="25" permlanes="1" modes="car"  />
      <link id="146" from="5" to="15" length="1000" capacity="100" freespeed="25" permlanes="1" modes="car"  />
      <link id="147" from="17" to="6" length="1000" capacity="100" freespeed="25" permlanes="1" modes="car"  />
   </links>
</network>